Circuit: * C:\Users\c15140\Documents\GitHub\test_supply\hardware\sims\supply.asc

Direct Newton iteration failed to find .op point.  (Use ".option noopiter" to skip.)
Starting Gmin stepping
Gmin = 10
Gmin = 1.07374
vernier = 0.5
vernier = 0.25
vernier = 0.125
vernier = 0.0625
Gmin = 1.08884
vernier = 0.03125
vernier = 0.015625
Gmin = 1.03122
vernier = 0.0078125
vernier = 0.00390625
Gmin = 1.01823
vernier = 0.00520833
vernier = 0.00260417
Gmin = 1.01162
vernier = 0.00347222
vernier = 0.00173611
vernier = 0.00231481
vernier = 0.00115741
Gmin = 1.00877
vernier = 0.00154321
vernier = 0.000771604
Gmin = 1.00673
vernier = 0.00102881
vernier = 0.000514403
vernier = 0.00068587
Gmin = 1.00553
vernier = 0.000514403
vernier = 0.00068587
vernier = 0.000514402
Gmin = 1.00475
Gmin = 0
Gmin stepping failed

Starting source stepping with srcstepmethod=0
Source Step = 3.0303%
Source Step = 33.3333%
Source Step = 54.7348%
vernier = 0.015625
Source Step = 54.5691%
Source Step = 54.5987%
Source Step = 54.6283%
Source Step = 54.6579%
Source Step = 54.6875%
vernier = 0.00146484
Source Step = 54.726%
Source Step = 54.7704%
Source Step = 54.8147%
Source Step = 54.8591%
Source Step = 54.9035%
vernier = 0.00219727
Source Step = 54.959%
Source Step = 55.0256%
Source Step = 55.0922%
Source Step = 55.1588%
Source Step = 55.2253%
vernier = 0.0032959
Source Step = 55.3052%
Source Step = 55.4051%
Source Step = 55.505%
Source Step = 55.6049%
Source Step = 55.7048%
vernier = 0.00494385
Source Step = 55.8196%
Source Step = 55.9694%
Source Step = 56.1192%
Source Step = 56.2691%
Source Step = 56.4189%
vernier = 0.00741577
Source Step = 56.5837%
Source Step = 56.8084%
Source Step = 57.0331%
Source Step = 57.2578%
Source Step = 57.4825%
vernier = 0.0111237
Source Step = 57.7185%
Source Step = 58.0556%
Source Step = 58.3927%
Source Step = 58.7297%
Source Step = 59.0668%
Source Step = 59.4039%
vernier = 0.0166855
Source Step = 59.9095%
Source Step = 60.4151%
Source Step = 60.9208%
Source Step = 61.4264%
Source Step = 61.932%
vernier = 0.0250282
Source Step = 62.6652%
Source Step = 63.4236%
Source Step = 64.182%
Source Step = 64.9404%
Source Step = 65.6989%
vernier = 0.0375423
Source Step = 66.7607%
Source Step = 67.8983%
Source Step = 69.036%
Source Step = 70.1736%
Source Step = 71.3113%
Source Step = 71.4961%
Source Step = 71.5672%
Source Step = 71.6383%
Source Step = 71.7094%
Source Step = 71.7805%
vernier = 0.00351959
Source Step = 71.8659%
Source Step = 71.9725%
Source Step = 72.0792%
Source Step = 72.1858%
Source Step = 72.2925%
vernier = 0.00527939
Source Step = 72.4151%
Source Step = 72.5751%
Source Step = 72.7351%
Source Step = 72.8951%
Source Step = 73.0551%
vernier = 0.00791909
Source Step = 73.231%
Source Step = 73.471%
Source Step = 73.711%
Source Step = 73.951%
Source Step = 74.1909%
vernier = 0.0118786
Source Step = 74.4429%
Source Step = 74.8029%
Source Step = 75.1628%
Source Step = 75.5228%
Source Step = 75.8827%
Source Step = 76.2427%
vernier = 0.0178179
Source Step = 76.7826%
Source Step = 77.3226%
Source Step = 77.8625%
Source Step = 78.4025%
Source Step = 78.9424%
vernier = 0.0267269
Source Step = 79.7253%
Source Step = 80.5352%
Source Step = 81.3451%
Source Step = 82.155%
Source Step = 82.9649%
vernier = 0.0400904
Source Step = 84.0988%
Source Step = 85.3137%
Source Step = 86.5285%
Source Step = 87.7434%
Source Step = 88.9582%
vernier = 0.0100226
Source Step = 88.9506%
Source Step = 89.0266%
Source Step = 89.1025%
Source Step = 89.1784%
Source Step = 89.2544%
vernier = 0.00375847
Source Step = 89.3531%
Source Step = 89.467%
Source Step = 89.5809%
Source Step = 89.6947%
Source Step = 89.8086%
vernier = 0.00563771
Source Step = 89.951%
Source Step = 90.1218%
Source Step = 90.25%
Source Step = 90.2927%
Source Step = 90.3354%
Source Step = 90.3781%
Source Step = 90.4208%
Source Step = 90.4635%
Source Step = 90.5062%
Source Step = 90.5489%
vernier = 0.00211414
Source Step = 90.613%
Source Step = 90.6771%
Source Step = 90.7411%
Source Step = 90.8052%
Source Step = 90.8693%
vernier = 0.00317121
Source Step = 90.9622%
Source Step = 91.0583%
Source Step = 91.1544%
Source Step = 91.2505%
Source Step = 91.3466%
vernier = 0.00475682
Source Step = 91.4811%
Source Step = 91.6252%
Source Step = 91.7694%
Source Step = 91.9135%
Source Step = 92.0577%
vernier = 0.00713523
Source Step = 92.2523%
Source Step = 92.4685%
Source Step = 92.6847%
Source Step = 92.9009%
Source Step = 93.1171%
vernier = 0.0107028
Source Step = 93.3982%
Source Step = 93.7226%
Source Step = 94.0469%
Source Step = 94.3712%
Source Step = 94.6955%
vernier = 0.0160543
Source Step = 95.101%
Source Step = 95.5874%
Source Step = 96.0739%
Source Step = 96.5604%
Source Step = 97.0469%
vernier = 0.0240814
Source Step = 97.6307%
Source Step = 98.3605%
Source Step = 99.0902%
Source Step = 99.8199%
Source stepping succeeded in finding the operating point.

Ignoring empty pin current: Ix(u1:10)
Ignoring empty pin current: Ix(u1:11)
Ignoring empty pin current: Ix(u1:18)
Ignoring empty pin current: Ix(u1:10)
Ignoring empty pin current: Ix(u1:11)
Ignoring empty pin current: Ix(u1:18)
.step rhigh=78 rprog=20078
.step rhigh=156 rprog=20078
.step rhigh=19812 rprog=20078
.step rhigh=19890 rprog=20078
.step rhigh=78 rprog=20156
.step rhigh=156 rprog=20156
.step rhigh=19812 rprog=20156
.step rhigh=19890 rprog=20156
.step rhigh=78 rprog=39812
.step rhigh=156 rprog=39812
.step rhigh=19812 rprog=39812
.step rhigh=19890 rprog=39812
.step rhigh=78 rprog=39890
.step rhigh=156 rprog=39890
.step rhigh=19812 rprog=39890
.step rhigh=19890 rprog=39890

Date: Mon Apr 24 17:25:12 2017
Total elapsed time: 70.711 seconds.

tnom = 27
temp = 27
method = modified trap
totiter = 49441
traniter = 40634
tranpoints = 20287
accept = 20220
rejected = 67
matrix size = 106
fillins = 230
solver = Normal
Thread vector: 41.9/12.7[8] 9.7/3.8[8] 4.7/2.0[8] 0.6/2.0[1]  2592/500
Matrix Compiler1: 19.33 KB object code size  5.0/2.7/[1.1]
Matrix Compiler2: 15.10 KB object code size  2.0/3.1/[1.0]

